320
 generated by VMD
 B         0.000000        0.000000        0.000000
 N        -1.255737        0.725000        0.000000
 B        -1.255737        2.175000        0.000000
 N         0.000000        2.900000        0.000000
 B         2.511474        0.000000        0.000000
 N         1.255737        0.725000        0.000000
 B         1.255737        2.175000        0.000000
 N         2.511474        2.900000        0.000000
 B         5.022947        0.000000        0.000000
 N         3.767210        0.725000        0.000000
 B         3.767210        2.175000        0.000000
 N         5.022947        2.900000        0.000000
 B         7.534421        0.000000        0.000000
 N         6.278684        0.725000        0.000000
 B         6.278684        2.175000        0.000000
 N         7.534421        2.900000        0.000000
 B        10.045895        0.000000        0.000000
 N         8.790158        0.725000        0.000000
 B         8.790158        2.175000        0.000000
 N        10.045895        2.900000        0.000000
 B        12.557368        0.000000        0.000000
 N        11.301632        0.725000        0.000000
 B        11.301632        2.175000        0.000000
 N        12.557368        2.900000        0.000000
 B        15.068842        0.000000        0.000000
 N        13.813106        0.725000        0.000000
 B        13.813106        2.175000        0.000000
 N        15.068842        2.900000        0.000000
 B        17.580317        0.000000        0.000000
 N        16.324579        0.725000        0.000000
 B        16.324579        2.175000        0.000000
 N        17.580317        2.900000        0.000000
 B        20.091789        0.000000        0.000000
 N        18.836052        0.725000        0.000000
 B        18.836052        2.175000        0.000000
 N        20.091789        2.900000        0.000000
 B        22.603264        0.000000        0.000000
 N        21.347527        0.725000        0.000000
 B        21.347527        2.175000        0.000000
 N        22.603264        2.900000        0.000000
 B        25.114737        0.000000        0.000000
 N        23.858999        0.725000        0.000000
 B        23.858999        2.175000        0.000000
 N        25.114737        2.900000        0.000000
 B        27.626211        0.000000        0.000000
 N        26.370474        0.725000        0.000000
 B        26.370474        2.175000        0.000000
 N        27.626211        2.900000        0.000000
 B        30.137684        0.000000        0.000000
 N        28.881947        0.725000        0.000000
 B        28.881947        2.175000        0.000000
 N        30.137684        2.900000        0.000000
 B        32.649158        0.000000        0.000000
 N        31.393421        0.725000        0.000000
 B        31.393421        2.175000        0.000000
 N        32.649158        2.900000        0.000000
 B        35.160633        0.000000        0.000000
 N        33.904896        0.725000        0.000000
 B        33.904896        2.175000        0.000000
 N        35.160633        2.900000        0.000000
 B        37.672104        0.000000        0.000000
 N        36.416367        0.725000        0.000000
 B        36.416367        2.175000        0.000000
 N        37.672104        2.900000        0.000000
 B         0.000000        4.350000        0.000000
 N        -1.255737        5.075000        0.000000
 B        -1.255737        6.525000        0.000000
 N         0.000000        7.250000        0.000000
 B         2.511474        4.350000        0.000000
 N         1.255737        5.075000        0.000000
 B         1.255737        6.525000        0.000000
 N         2.511474        7.250000        0.000000
 B         5.022947        4.350000        0.000000
 N         3.767210        5.075000        0.000000
 B         3.767210        6.525000        0.000000
 N         5.022947        7.250000        0.000000
 B         7.534421        4.350000        0.000000
 N         6.278684        5.075000        0.000000
 B         6.278684        6.525000        0.000000
 N         7.534421        7.250000        0.000000
 B        10.045895        4.350000        0.000000
 N         8.790158        5.075000        0.000000
 B         8.790158        6.525000        0.000000
 N        10.045895        7.250000        0.000000
 B        12.557368        4.350000        0.000000
 N        11.301632        5.075000        0.000000
 B        11.301632        6.525000        0.000000
 N        12.557368        7.250000        0.000000
 B        15.068842        4.350000        0.000000
 N        13.813106        5.075000        0.000000
 B        13.813106        6.525000        0.000000
 N        15.068842        7.250000        0.000000
 B        17.580317        4.350000        0.000000
 N        16.324579        5.075000        0.000000
 B        16.324579        6.525000        0.000000
 N        17.580317        7.250000        0.000000
 B        20.091789        4.350000        0.000000
 N        18.836052        5.075000        0.000000
 B        18.836052        6.525000        0.000000
 N        20.091789        7.250000        0.000000
 B        22.603264        4.350000        0.000000
 N        21.347527        5.075000        0.000000
 B        21.347527        6.525000        0.000000
 N        22.603264        7.250000        0.000000
 B        25.114737        4.350000        0.000000
 N        23.858999        5.075000        0.000000
 B        23.858999        6.525000        0.000000
 N        25.114737        7.250000        0.000000
 B        27.626211        4.350000        0.000000
 N        26.370474        5.075000        0.000000
 B        26.370474        6.525000        0.000000
 N        27.626211        7.250000        0.000000
 B        30.137684        4.350000        0.000000
 N        28.881947        5.075000        0.000000
 B        28.881947        6.525000        0.000000
 N        30.137684        7.250000        0.000000
 B        32.649158        4.350000        0.000000
 N        31.393421        5.075000        0.000000
 B        31.393421        6.525000        0.000000
 N        32.649158        7.250000        0.000000
 B        35.160633        4.350000        0.000000
 N        33.904896        5.075000        0.000000
 B        33.904896        6.525000        0.000000
 N        35.160633        7.250000        0.000000
 B        37.672104        4.350000        0.000000
 N        36.416367        5.075000        0.000000
 B        36.416367        6.525000        0.000000
 N        37.672104        7.250000        0.000000
 B         0.000000        8.700000        0.000000
 N        -1.255737        9.425000        0.000000
 B        -1.255737       10.875000        0.000000
 N         0.000000       11.600000        0.000000
 B         2.511474        8.700000        0.000000
 N         1.255737        9.425000        0.000000
 B         1.255737       10.875000        0.000000
 N         2.511474       11.600000        0.000000
 B         5.022947        8.700000        0.000000
 N         3.767210        9.425000        0.000000
 B         3.767210       10.875000        0.000000
 N         5.022947       11.600000        0.000000
 B         7.534421        8.700000        0.000000
 N         6.278684        9.425000        0.000000
 B         6.278684       10.875000        0.000000
 N         7.534421       11.600000        0.000000
 B        10.045895        8.700000        0.000000
 N         8.790158        9.425000        0.000000
 B         8.790158       10.875000        0.000000
 N        10.045895       11.600000        0.000000
 B        12.557368        8.700000        0.000000
 N        11.301632        9.425000        0.000000
 B        11.301632       10.875000        0.000000
 N        12.557368       11.600000        0.000000
 B        15.068842        8.700000        0.000000
 N        13.813106        9.425000        0.000000
 B        13.813106       10.875000        0.000000
 N        15.068842       11.600000        0.000000
 B        17.580317        8.700000        0.000000
 N        16.324579        9.425000        0.000000
 B        16.324579       10.875000        0.000000
 N        17.580317       11.600000        0.000000
 B        20.091789        8.700000        0.000000
 N        18.836052        9.425000        0.000000
 B        18.836052       10.875000        0.000000
 N        20.091789       11.600000        0.000000
 B        22.603264        8.700000        0.000000
 N        21.347527        9.425000        0.000000
 B        21.347527       10.875000        0.000000
 N        22.603264       11.600000        0.000000
 B        25.114737        8.700000        0.000000
 N        23.858999        9.425000        0.000000
 B        23.858999       10.875000        0.000000
 N        25.114737       11.600000        0.000000
 B        27.626211        8.700000        0.000000
 N        26.370474        9.425000        0.000000
 B        26.370474       10.875000        0.000000
 N        27.626211       11.600000        0.000000
 B        30.137684        8.700000        0.000000
 N        28.881947        9.425000        0.000000
 B        28.881947       10.875000        0.000000
 N        30.137684       11.600000        0.000000
 B        32.649158        8.700000        0.000000
 N        31.393421        9.425000        0.000000
 B        31.393421       10.875000        0.000000
 N        32.649158       11.600000        0.000000
 B        35.160633        8.700000        0.000000
 N        33.904896        9.425000        0.000000
 B        33.904896       10.875000        0.000000
 N        35.160633       11.600000        0.000000
 B        37.672104        8.700000        0.000000
 N        36.416367        9.425000        0.000000
 B        36.416367       10.875000        0.000000
 N        37.672104       11.600000        0.000000
 B         0.000000       13.050000        0.000000
 N        -1.255737       13.775000        0.000000
 B        -1.255737       15.225000        0.000000
 N         0.000000       15.950000        0.000000
 B         2.511474       13.050000        0.000000
 N         1.255737       13.775000        0.000000
 B         1.255737       15.225000        0.000000
 N         2.511474       15.950000        0.000000
 B         5.022947       13.050000        0.000000
 N         3.767210       13.775000        0.000000
 B         3.767210       15.225000        0.000000
 N         5.022947       15.950000        0.000000
 B         7.534421       13.050000        0.000000
 N         6.278684       13.775000        0.000000
 B         6.278684       15.225000        0.000000
 N         7.534421       15.950000        0.000000
 B        10.045895       13.050000        0.000000
 N         8.790158       13.775000        0.000000
 B         8.790158       15.225000        0.000000
 N        10.045895       15.950000        0.000000
 B        12.557368       13.050000        0.000000
 N        11.301632       13.775000        0.000000
 B        11.301632       15.225000        0.000000
 N        12.557368       15.950000        0.000000
 B        15.068842       13.050000        0.000000
 N        13.813106       13.775000        0.000000
 B        13.813106       15.225000        0.000000
 N        15.068842       15.950000        0.000000
 B        17.580317       13.050000        0.000000
 N        16.324579       13.775000        0.000000
 B        16.324579       15.225000        0.000000
 N        17.580317       15.950000        0.000000
 B        20.091789       13.050000        0.000000
 N        18.836052       13.775000        0.000000
 B        18.836052       15.225000        0.000000
 N        20.091789       15.950000        0.000000
 B        22.603264       13.050000        0.000000
 N        21.347527       13.775000        0.000000
 B        21.347527       15.225000        0.000000
 N        22.603264       15.950000        0.000000
 B        25.114737       13.050000        0.000000
 N        23.858999       13.775000        0.000000
 B        23.858999       15.225000        0.000000
 N        25.114737       15.950000        0.000000
 B        27.626211       13.050000        0.000000
 N        26.370474       13.775000        0.000000
 B        26.370474       15.225000        0.000000
 N        27.626211       15.950000        0.000000
 B        30.137684       13.050000        0.000000
 N        28.881947       13.775000        0.000000
 B        28.881947       15.225000        0.000000
 N        30.137684       15.950000        0.000000
 B        32.649158       13.050000        0.000000
 N        31.393421       13.775000        0.000000
 B        31.393421       15.225000        0.000000
 N        32.649158       15.950000        0.000000
 B        35.160633       13.050000        0.000000
 N        33.904896       13.775000        0.000000
 B        33.904896       15.225000        0.000000
 N        35.160633       15.950000        0.000000
 B        37.672104       13.050000        0.000000
 N        36.416367       13.775000        0.000000
 B        36.416367       15.225000        0.000000
 N        37.672104       15.950000        0.000000
 B         0.000000       17.400000        0.000000
 N        -1.255737       18.125000        0.000000
 B        -1.255737       19.575001        0.000000
 N         0.000000       20.299999        0.000000
 B         2.511474       17.400000        0.000000
 N         1.255737       18.125000        0.000000
 B         1.255737       19.575001        0.000000
 N         2.511474       20.299999        0.000000
 B         5.022947       17.400000        0.000000
 N         3.767210       18.125000        0.000000
 B         3.767210       19.575001        0.000000
 N         5.022947       20.299999        0.000000
 B         7.534421       17.400000        0.000000
 N         6.278684       18.125000        0.000000
 B         6.278684       19.575001        0.000000
 N         7.534421       20.299999        0.000000
 B        10.045895       17.400000        0.000000
 N         8.790158       18.125000        0.000000
 B         8.790158       19.575001        0.000000
 N        10.045895       20.299999        0.000000
 B        12.557368       17.400000        0.000000
 N        11.301632       18.125000        0.000000
 B        11.301632       19.575001        0.000000
 N        12.557368       20.299999        0.000000
 B        15.068842       17.400000        0.000000
 N        13.813106       18.125000        0.000000
 B        13.813106       19.575001        0.000000
 N        15.068842       20.299999        0.000000
 B        17.580317       17.400000        0.000000
 N        16.324579       18.125000        0.000000
 B        16.324579       19.575001        0.000000
 N        17.580317       20.299999        0.000000
 B        20.091789       17.400000        0.000000
 N        18.836052       18.125000        0.000000
 B        18.836052       19.575001        0.000000
 N        20.091789       20.299999        0.000000
 B        22.603264       17.400000        0.000000
 N        21.347527       18.125000        0.000000
 B        21.347527       19.575001        0.000000
 N        22.603264       20.299999        0.000000
 B        25.114737       17.400000        0.000000
 N        23.858999       18.125000        0.000000
 B        23.858999       19.575001        0.000000
 N        25.114737       20.299999        0.000000
 B        27.626211       17.400000        0.000000
 N        26.370474       18.125000        0.000000
 B        26.370474       19.575001        0.000000
 N        27.626211       20.299999        0.000000
 B        30.137684       17.400000        0.000000
 N        28.881947       18.125000        0.000000
 B        28.881947       19.575001        0.000000
 N        30.137684       20.299999        0.000000
 B        32.649158       17.400000        0.000000
 N        31.393421       18.125000        0.000000
 B        31.393421       19.575001        0.000000
 N        32.649158       20.299999        0.000000
 B        35.160633       17.400000        0.000000
 N        33.904896       18.125000        0.000000
 B        33.904896       19.575001        0.000000
 N        35.160633       20.299999        0.000000
 B        37.672104       17.400000        0.000000
 N        36.416367       18.125000        0.000000
 B        36.416367       19.575001        0.000000
 N        37.672104       20.299999        0.000000
