89
 generated by VMD
 C        24.832676       13.932573        4.263760
 C        17.558205       12.511345        1.736100
 C        10.279865       13.913624        4.263750
 C        10.279865       13.913624        1.736250
 C         9.955656       13.108805        3.000000
 C        24.832676       13.932573        1.736240
 C        25.159115       13.128666        3.000000
 C        17.558205       12.511345        4.263900
 C        17.559345       11.643904        3.000000
 C        30.289738       13.613207        3.000000
 C         4.838346       13.602957        3.000000
 C        23.519604        9.184181        3.000000
 C        22.548775       10.222441        3.000000
 C        23.051924       11.542744        3.000000
 C        24.426136       11.783363        3.000000
 C        25.351845       10.727692        3.000000
 C        24.904865        9.423891        3.000000
 C        26.621887       12.676796        3.000000
 C        26.693657       11.267462        3.000000
 C        27.771755       13.456335        3.000000
 C        29.082188       11.406301        3.000000
 C        27.920605       10.626402        3.000000
 C        14.564165        8.599212        3.000000
 C        14.051405        9.925091        3.000000
 C        15.011185       10.962023        3.000000
 C        16.375515       10.671602        3.000000
 C        16.839746        9.346611        3.000000
 C        15.938656        8.303931        3.000000
 C        18.745695       10.674692        3.000000
 C        18.284925        9.348492        3.000000
 C        20.109266       10.968662        3.000000
 C        21.071745        9.934240        3.000000
 C        20.562435        8.607031        3.000000
 C        19.188725        8.308162        3.000000
 C         6.035965       11.375683        3.000000
 C         6.096695       12.784136        3.000000
 C         7.342135       13.428375        3.000000
 C         8.494315       12.652937        3.000000
 C         8.426065       11.243671        3.000000
 C         7.200545       10.599562        3.000000
 C        10.692215       11.765444        3.000000
 C         9.769245       10.707331        3.000000
 C        12.067045       11.528433        3.000000
 C        12.573626       10.209431        3.000000
 C        11.605505        9.168641        3.000000
 C        10.219616        9.404711        3.000000
 C        29.017967       12.815435        3.000000
 H        30.088936       14.689585        3.000010
 H        30.879555       13.381565        2.107350
 H        30.879566       13.381556        3.892640
 H        23.770405       14.199734        4.303760
 H        25.409157       14.863955        4.304180
 H        25.062126       13.365755        5.174450
 H        16.673275       13.156826        1.695730
 H        17.559006       11.899673        0.825530
 H        18.441456       13.159136        1.695730
 H        10.052035       13.346165        5.174450
 H        11.341385       14.183754        4.303730
 H         9.700746       14.843365        4.304170
 H         3.945786       12.968817        3.000000
 H         4.800816       14.235615        2.107380
 H         4.800825       14.235624        3.892610
 H         5.071025       10.872633        3.000000
 H         7.133656        9.517021        3.000000
 H         9.526956        8.569701        3.000000
 H        11.904145        8.124831        3.000000
 H        13.899235        7.740921        3.000000
 H        16.271925        7.271471        3.000000
 H        18.858154        7.274841        3.000000
 H        21.229605        7.750481        3.000000
 H        23.223705        8.139591        3.000000
 H        25.599716        8.590692        3.000000
 H        27.990677        9.544111        3.000000
 H        30.050617       10.909582        3.000000
 H        27.702316       14.539795        3.000000
 H        22.396095       12.405104        3.000000
 H        20.392984       12.014282        3.000000
 H        14.724735       12.006893        3.000000
 H        12.720615       12.392494        3.000000
 H         7.404725       14.512424        3.000000
 H        17.559006       11.899673        5.174470
 H        16.673275       13.156826        4.304270
 H        18.441456       13.159136        4.304270
 H        25.409157       14.863955        1.695820
 H        23.770405       14.199734        1.696240
 H        25.062126       13.365755        0.825550
 H        10.052035       13.346165        0.825550
 H        11.341385       14.183754        1.696270
 H         9.700746       14.843365        1.695830
