29
 generated by VMD
 H        23.229191       10.140962        2.000000
 H        21.015133        8.940032        2.000000
 H        18.709621        8.354102        2.000000
 H        16.180481        8.310271        2.000000
 H        14.118151        8.818532        2.000000
 H        11.868091        9.926802        2.000000
 H        11.804251       13.787352        2.000000
 H        11.149031       12.627232        2.000000
 H        10.780150       12.459131        2.000000
 H        23.129860       13.989012        2.000000
 H        23.700378       12.987932        2.000000
 H        24.236000       12.645822        2.000000
 C        22.241180       12.038142        2.000000
 C        22.319920       10.628542        2.000000
 C        21.154453       10.002102        2.000000
 C        20.074841       10.880411        2.000000
 C        18.722130       10.504052        2.000000
 C        18.157570        9.239852        2.000000
 C        16.777121        9.214392        2.000000
 C        16.270111       10.460182        2.000000
 C        14.938460       10.789131        2.000000
 C        13.921251        9.870752        2.000000
 C        12.739791       10.448381        2.000000
 C        12.747340       11.859122        2.000000
 C        11.560731       12.730911        2.000000
 C        23.383869       12.965762        2.000000
 S        20.658710       12.541573        2.000000
 S        17.522091       11.633732        2.000000
 S        14.280071       12.420732        2.000000
