29
 generated by VMD
 H        12.236842       12.844691        2.000000
 H        14.858212       12.915761        2.000000
 H        16.221413        8.247511        2.000000
 H        18.817808        8.242281        2.000000
 H        20.223360       12.922111        2.000000
 H        22.848707       12.818341        2.000000
 H        24.329420        9.533102        2.000000
 H        24.263941        9.631452        2.000000
 H        24.784700       11.030571        2.000000
 H        10.760452        9.582181        2.000000
 H        10.668052        9.704991        2.000000
 H        10.263842       11.100001        2.000000
 C        12.359682       10.682451        2.000000
 C        12.860262       11.963601        2.000000
 C        14.284732       11.997472        2.000000
 C        14.856162       10.742372        2.000000
 C        16.275023       10.412281        2.000000
 C        16.814272        9.150182        2.000000
 C        18.234949        9.147771        2.000000
 C        18.786829       10.407231        2.000000
 C        20.194960       10.744741        2.000000
 C        20.782160       11.997041        2.000000
 C        22.206728       11.945863        2.000000
 C        22.677748       10.654671        2.000000
 C        24.089327       10.184871        2.000000
 C        10.936872       10.241331        2.000000
 S        13.604113        9.520441        2.000000
 S        17.555162       11.600661        2.000000
 S        21.400190        9.520441        2.000000
